test/checkSuCo/#25 SuCo DakNong- Pleiku.py.txt

  ITER       DELTAP      BUS         DELTAQ      BUS        DELTA/V/      BUS       DELTAANG      BUS
   0         0.0000(   137031   )    0.0000(   321010   )
                                                             0.13209(   937061   )   0.02614(   914025   )
   1         0.0437(   137031   )    0.9115(   975042   )
                                                             0.12024(   914025   )   0.02695(   914025   )
   2         0.0325(   137031   )    0.0548(   914025   )
                                                             0.01360(   937061   )   0.00579(   138003   )
   3         0.0011(   137031   )    0.0010(   972322   )
                                                             0.00020(   937061   )   0.00011(   138003   )
   4         0.0000(   137031   )    0.0000(   972322   )


 Reached tolerance in 4 iterations

 Largest mismatch:      0.00 MW     -0.00 Mvar      0.00 MVA at bus 72010 [VINHTAN5    500.00]
 System total absolute mismatch:                    0.00 MVA

 SWING BUS SUMMARY:
   BUS# X-- NAME --X BASKV      PGEN     PMAX    PMIN      QGEN     QMAX    QMIN
 113017 MAOMAOTIAO1 110.00      91.9    150.0     0.0      -5.2     50.0   -30.0
 126047 THAMCAU1    110.00      59.5    150.0     0.0     -33.0*    30.0   -30.0
 923011 HOABINH_H1  15.800     214.4    240.0     0.0      55.5    180.0   -80.0

  ITER       DELTAP      BUS         DELTAQ      BUS        DELTA/V/      BUS       DELTAANG      BUS
   0         0.0000(   137031   )    0.0000(   321010   )
                                                             0.13209(   937061   )   0.02614(   914025   )
   1         0.0437(   137031   )    0.9115(   975042   )
                                                             0.12024(   914025   )   0.02695(   914025   )
   2         0.0325(   137031   )    0.0548(   914025   )
                                                             0.01360(   937061   )   0.00579(   138003   )
   3         0.0011(   137031   )    0.0010(   972322   )
                                                             0.00020(   937061   )   0.00011(   138003   )
   4         0.0000(   137031   )    0.0000(   972322   )


 Reached tolerance in 4 iterations

 Largest mismatch:      0.00 MW     -0.00 Mvar      0.00 MVA at bus 72010 [VINHTAN5    500.00]
 System total absolute mismatch:                    0.00 MVA

 SWING BUS SUMMARY:
   BUS# X-- NAME --X BASKV      PGEN     PMAX    PMIN      QGEN     QMAX    QMIN
 113017 MAOMAOTIAO1 110.00      91.9    150.0     0.0      -5.2     50.0   -30.0
 126047 THAMCAU1    110.00      59.5    150.0     0.0     -33.0*    30.0   -30.0
 923011 HOABINH_H1  15.800     214.4    240.0     0.0      55.5    180.0   -80.0

  ITER       DELTAP      BUS         DELTAQ      BUS        DELTA/V/      BUS       DELTAANG      BUS
   0         0.0000(   137031   )    0.0000(   321010   )
                                                             0.13209(   937061   )   0.02614(   914025   )
   1         0.0437(   137031   )    0.9115(   975042   )
                                                             0.12024(   914025   )   0.02695(   914025   )
   2         0.0325(   137031   )    0.0548(   914025   )
                                                             0.01360(   937061   )   0.00579(   138003   )
   3         0.0011(   137031   )    0.0010(   972322   )
                                                             0.00020(   937061   )   0.00011(   138003   )
   4         0.0000(   137031   )    0.0000(   334010   )


 Reached tolerance in 4 iterations

 Largest mismatch:      0.00 MW     -0.00 Mvar      0.00 MVA at bus 72010 [VINHTAN5    500.00]
 System total absolute mismatch:                    0.00 MVA

 SWING BUS SUMMARY:
   BUS# X-- NAME --X BASKV      PGEN     PMAX    PMIN      QGEN     QMAX    QMIN
 113017 MAOMAOTIAO1 110.00      91.9    150.0     0.0      -5.2     50.0   -30.0
 126047 THAMCAU1    110.00      59.5    150.0     0.0     -33.0*    30.0   -30.0
 923011 HOABINH_H1  15.800     214.4    240.0     0.0      55.5    180.0   -80.0
 Diagonals = 3804   Off-diagonals = 8791   Maximum size = 11094

  ITER       DELTAP      BUS         DELTAQ      BUS        DELTA/V/      BUS       DELTAANG      BUS
   0         0.0000(   137031   )    0.0000(   334010   )
                                                             0.13209(   937061   )   0.02614(   914025   )
   1         0.0437(   137031   )    0.9115(   975042   )
                                                             0.12024(   914025   )   0.02695(   914025   )
   2         0.0325(   137031   )    0.0548(   914025   )
                                                             0.01360(   937061   )   0.00579(   138003   )
   3         0.0011(   137031   )    0.0010(   972322   )
                                                             0.00020(   937061   )   0.00011(   138003   )
   4         0.0000(   137031   )    0.0000(   334010   )


 Reached tolerance in 4 iterations

 Largest mismatch:     -0.00 MW     -0.00 Mvar      0.00 MVA at bus 72010 [VINHTAN5    500.00]
 System total absolute mismatch:                    0.00 MVA

 SWING BUS SUMMARY:
   BUS# X-- NAME --X BASKV      PGEN     PMAX    PMIN      QGEN     QMAX    QMIN
 113017 MAOMAOTIAO1 110.00      91.9    150.0     0.0      -5.2     50.0   -30.0
 126047 THAMCAU1    110.00      59.5    150.0     0.0     -33.0*    30.0   -30.0
 923011 HOABINH_H1  15.800     214.4    240.0     0.0      55.5    180.0   -80.0

 1346 loads converted during this step

 1346 of 1346 loads converted
 No plant at type 2 bus 290009 [TRAVINH2    220.00]--bus type code set to 1
 No plant at type 2 bus 212015 [LANGSON2    220.00]--bus type code set to 1
 No plant at type 2 bus 219021 [TXSONLA2    220.00]--bus type code set to 1
 No plant at type 2 bus 216023 [THANUYEN2   220.00]--bus type code set to 1
 No plant at type 2 bus 213002 [BACME       220.00]--bus type code set to 1
 No plant at type 2 bus 138081 [HBRE_HT     110.00]--bus type code set to 1

 Generator conversion completed using ZSORCE
 Diagonals = 3807   Off-diagonals = 8794   Maximum size = 11100

 3807 diagonal and 8118 off-diagonal elements

 ITER DELTAV/TOL X-------- AT BUS ---------X  REAL(DELTAV)  IMAG(DELTAV)
    1     1.564  777082 [THUDUC214_C215.000]    0.9050E-05    0.1276E-04
    2     0.006  170149 [DATEH       110.00]    0.6102E-07    0.1955E-07

 Reached tolerance in 2 iterations

 Largest mismatch:     -0.00 MW      0.02 Mvar      0.02 MVA at bus 173051 [TDLONGHA    110.00]
 System total absolute mismatch:                    0.14 MVA

 Case saved in file sme.sav on THU, NOV 04 2021  17:06

 3807 diagonal and 8118 off-diagonal elements

 Duplicate model type: "ESST4B" at bus 958051 machine "1"
 RECORD IGNORED:
 958051	'ESST4B'	1	0	15	15	5	-0.87	0	1	0	99	-99	0	9.3	0	11.63	0.113	0.124	0	/	/

 Machine is a wind machine - Model "ESST4B" cannot be attached

 Machine is a wind machine - Model "ESST4B" cannot be attached

 Machine is a wind machine - Model "GENSAL" cannot be attached

 Machine is a wind machine - Model "GENSAL" cannot be attached

 Machine is a wind machine - Model "HYGOV" cannot be attached

 Machine is a wind machine - Model "HYGOV" cannot be attached

 Machine is a wind machine - Model "PSS2A" cannot be attached

 Machine is a wind machine - Model "PSS2A" cannot be attached

 Input error detected at !
 955092	'ESST4B'	1	0	10.75	10.75	5	-0.87	0	1	0	99	-99	0	9.3	0	11.63	0.113	0.124	0	/	/					
        !

 RECORD IGNORED:
 955091	'PSS2A'	1	1	0	3	0	5	1	2.5	2.5	0	2.5	0	2.5	0.39	1	0	0.1	6.5	0.44	0.08					

 Machine is a wind machine - Model "EXAC4" cannot be attached

 Machine is a wind machine - Model "GENSAL" cannot be attached

 Machine is a wind machine - Model "HYGOV" cannot be attached

 Machine is a wind machine - Model "PSS2A" cannot be attached

 Machine is a wind machine - Model "ESST4B" cannot be attached

 Machine is a wind machine - Model "GENSAL" cannot be attached

 Machine is a wind machine - Model "HYGOV" cannot be attached

 Machine is a wind machine - Model "PSS2A" cannot be attached

 Duplicate model type: "ESST4B" at bus 916095 machine "1"
 RECORD IGNORED:
 916095	'ESST4B'	1	0	10.75	10.75	5	-0.87	0	1	0	99	-99	0	9.3	0	11.63	0.113	0.124	0	/

 Duplicate model type: "ESST4B" at bus 919126 machine "1"
 RECORD IGNORED:
 919126	'ESST4B'	1	0	10.75	10.75	5	-0.87	0	1	0	99	-99	0	9.3	0	11.63	0.113	0.124	0	/

 Duplicate model type: "GENSAL" at bus 919126 machine "1"
 RECORD IGNORED:
 919126	'GENSAL'	1	6.6	0.05	0.155	2	0	1.13	0.734	0.26	0.23	0.104	0.194	0.685	/	/

 Duplicate model type: "HYGOV" at bus 919126 machine "1"
 RECORD IGNORED:
 919126	'HYGOV'	1	0.06	0.4	3	0.099	0.4	0.15	1	0.1	1.35	1.4	0.1	0.1	/	/

 Duplicate model type: "PSS2A" at bus 919126 machine "1"
 RECORD IGNORED:
 919126	'PSS2A'	1	1	0	3	0	5	1	2.5	2.5	0	2.5	0	2.5	0.39	1	0	0.1	6.5	0.44	0.08	0.2	0.98	0.1	-0.1	/

 Duplicate model type: "ESST4B" at bus 950107 machine "1"
 RECORD IGNORED:
 950107	'ESST4B'	1	0	10.75	10.75	5	-0.87	0	1	0	99	-99	0	9.3	0	11.63	0.113	0.124	0	/

 Duplicate model type: "GENSAL" at bus 950107 machine "1"
 RECORD IGNORED:
 950107	'GENSAL'	1	6.6	0.05	0.155	2	0	1.13	0.734	0.26	0.23	0.104	0.194	0.685	/	/

 Duplicate model type: "HYGOV" at bus 950107 machine "1"
 RECORD IGNORED:
 950107	'HYGOV'	1	0.06	0.4	3	0.099	0.4	0.15	1	0.1	1.35	1.4	0.1	0.1	/	/

 Duplicate model type: "PSS2A" at bus 950107 machine "1"
 RECORD IGNORED:
 950107	'PSS2A'	1	1	0	3	0	5	1	2.5	2.5	0	2.5	0	2.5	0.39	1	0	0.1	6.5	0.44	0.08	0.2	0.98	0.1	-0.1	/

 Machine is a wind machine - Model "ESST4B" cannot be attached

 Machine is a wind machine - Model "GENSAL" cannot be attached

 Machine is a wind machine - Model "HYGOV" cannot be attached

 Machine is a wind machine - Model "PSS2A" cannot be attached

 Machine is a wind machine - Model "ESST4B" cannot be attached

 Machine is a wind machine - Model "GENSAL" cannot be attached

 Machine is a wind machine - Model "HYGOV" cannot be attached

 Machine is a wind machine - Model "PSS2A" cannot be attached

 Machine is a wind machine - Model "ESST4B" cannot be attached

 Machine is a wind machine - Model "GENSAL" cannot be attached

 Machine is a wind machine - Model "HYGOV" cannot be attached

 Machine is a wind machine - Model "PSS2A" cannot be attached

 Machine is a wind machine - Model "ESST4B" cannot be attached

 Machine is a wind machine - Model "GENSAL" cannot be attached

 Machine is a wind machine - Model "HYGOV" cannot be attached

 Machine is a wind machine - Model "PSS2A" cannot be attached

 Machine is a wind machine - Model "ESST4B" cannot be attached

 Machine is a wind machine - Model "GENSAL" cannot be attached

 Machine is a wind machine - Model "HYGOV" cannot be attached

 Machine is a wind machine - Model "PSS2A" cannot be attached

 Machine is a wind machine - Model "ESST4B" cannot be attached

 Machine is a wind machine - Model "GENSAL" cannot be attached

 Machine is a wind machine - Model "HYGOV" cannot be attached

 Machine is a wind machine - Model "PSS2A" cannot be attached

 Machine is a wind machine - Model "ESST4B" cannot be attached

 Machine is a wind machine - Model "GENSAL" cannot be attached

 Machine is a wind machine - Model "HYGOV" cannot be attached

 Machine is a wind machine - Model "PSS2A" cannot be attached

 Machine is a wind machine - Model "ESST4B" cannot be attached

 Machine is a wind machine - Model "GENSAL" cannot be attached

 Machine is a wind machine - Model "HYGOV" cannot be attached

 Machine is a wind machine - Model "PSS2A" cannot be attached

 Machine is a wind machine - Model "ESST4B" cannot be attached

 Machine is a wind machine - Model "GENSAL" cannot be attached

 Machine is a wind machine - Model "HYGOV" cannot be attached

 Machine is a wind machine - Model "PSS2A" cannot be attached

 Machine is a wind machine - Model "ESST4B" cannot be attached

 Machine is a wind machine - Model "GENSAL" cannot be attached

 Machine is a wind machine - Model "HYGOV" cannot be attached

 Machine is a wind machine - Model "PSS2A" cannot be attached

 Machine is a wind machine - Model "ESST4B" cannot be attached

 Machine is a wind machine - Model "GENSAL" cannot be attached

 Machine is a wind machine - Model "HYGOV" cannot be attached

 Machine is a wind machine - Model "PSS2A" cannot be attached

 Machine is a wind machine - Model "ESST4B" cannot be attached

 Machine is a wind machine - Model "GENSAL" cannot be attached

 Machine is a wind machine - Model "HYGOV" cannot be attached

 Machine is a wind machine - Model "PSS2A" cannot be attached

 Machine is a wind machine - Model "ESST4B" cannot be attached

 Machine is a wind machine - Model "GENSAL" cannot be attached

 Machine is a wind machine - Model "HYGOV" cannot be attached

 Machine is a wind machine - Model "PSS2A" cannot be attached

 Machine is a wind machine - Model "ESST4B" cannot be attached

 Machine is a wind machine - Model "GENSAL" cannot be attached

 Machine is a wind machine - Model "HYGOV" cannot be attached

 Machine is a wind machine - Model "PSS2A" cannot be attached

 Machine is a wind machine - Model "ESST4B" cannot be attached

 Machine is a wind machine - Model "GENSAL" cannot be attached

 Machine is a wind machine - Model "HYGOV" cannot be attached

 Machine is a wind machine - Model "PSS2A" cannot be attached

 Machine is a wind machine - Model "ESST4B" cannot be attached

 Machine is a wind machine - Model "GENSAL" cannot be attached

 Machine is a wind machine - Model "HYGOV" cannot be attached

 Machine is a wind machine - Model "PSS2A" cannot be attached

 Machine is a wind machine - Model "ESST4B" cannot be attached

 Machine is a wind machine - Model "GENSAL" cannot be attached

 Machine is a wind machine - Model "HYGOV" cannot be attached

 Machine is a wind machine - Model "PSS2A" cannot be attached

 Machine is a wind machine - Model "ESST4B" cannot be attached

 Machine is a wind machine - Model "GENSAL" cannot be attached

 Machine is a wind machine - Model "HYGOV" cannot be attached

 Machine is a wind machine - Model "PSS2A" cannot be attached

 Machine is a wind machine - Model "ESST4B" cannot be attached

 Machine is a wind machine - Model "GENSAL" cannot be attached

 Machine is a wind machine - Model "HYGOV" cannot be attached

 Machine is a wind machine - Model "PSS2A" cannot be attached

 Machine is a wind machine - Model "ESST4B" cannot be attached

 Machine is a wind machine - Model "GENSAL" cannot be attached

 Machine is a wind machine - Model "HYGOV" cannot be attached

 Machine is a wind machine - Model "PSS2A" cannot be attached

 Machine is a wind machine - Model "ESST4B" cannot be attached

 Machine is a wind machine - Model "GENSAL" cannot be attached

 Machine is a wind machine - Model "HYGOV" cannot be attached

 Machine is a wind machine - Model "PSS2A" cannot be attached

 Machine is a wind machine - Model "ESST4B" cannot be attached

 Machine is a wind machine - Model "GENSAL" cannot be attached

 Machine is a wind machine - Model "HYGOV" cannot be attached

 Machine is a wind machine - Model "PSS2A" cannot be attached

 Machine is a wind machine - Model "ESST4B" cannot be attached

 Machine is a wind machine - Model "GENSAL" cannot be attached

 Machine is a wind machine - Model "HYGOV" cannot be attached

 Machine is a wind machine - Model "PSS2A" cannot be attached

 Machine is a wind machine - Model "ESST4B" cannot be attached

 Machine is a wind machine - Model "GENSAL" cannot be attached

 Machine is a wind machine - Model "HYGOV" cannot be attached

 Machine is a wind machine - Model "PSS2A" cannot be attached

 Machine is a wind machine - Model "ESST4B" cannot be attached

 Machine is a wind machine - Model "GENSAL" cannot be attached

 Machine is a wind machine - Model "HYGOV" cannot be attached

 Machine is a wind machine - Model "PSS2A" cannot be attached

 Machine is a wind machine - Model "ESST4B" cannot be attached

 Machine is a wind machine - Model "GENSAL" cannot be attached

 Machine is a wind machine - Model "HYGOV" cannot be attached

 Machine is a wind machine - Model "PSS2A" cannot be attached

 Machine is a wind machine - Model "ESST4B" cannot be attached

 Machine is a wind machine - Model "GENSAL" cannot be attached

 Machine is a wind machine - Model "HYGOV" cannot be attached

 Machine is a wind machine - Model "PSS2A" cannot be attached

 Machine is a wind machine - Model "ESST4B" cannot be attached

 Machine is a wind machine - Model "GENSAL" cannot be attached

 Machine is a wind machine - Model "HYGOV" cannot be attached

 Machine is a wind machine - Model "PSS2A" cannot be attached

 Machine is a wind machine - Model "ESST4B" cannot be attached

 Machine is a wind machine - Model "GENSAL" cannot be attached

 Machine is a wind machine - Model "HYGOV" cannot be attached

 Machine is a wind machine - Model "PSS2A" cannot be attached

 Machine is a wind machine - Model "ESST4B" cannot be attached

 Machine is a wind machine - Model "GENSAL" cannot be attached

 Machine is a wind machine - Model "HYGOV" cannot be attached

 Machine is a wind machine - Model "PSS2A" cannot be attached

 Machine is a wind machine - Model "ESST4B" cannot be attached

 Machine is a wind machine - Model "GENSAL" cannot be attached

 Machine is a wind machine - Model "HYGOV" cannot be attached

 Machine is a wind machine - Model "PSS2A" cannot be attached

 Machine is a wind machine - Model "ESST4B" cannot be attached

 Machine is a wind machine - Model "GENSAL" cannot be attached

 Machine is a wind machine - Model "HYGOV" cannot be attached

 Machine is a wind machine - Model "PSS2A" cannot be attached

 Machine is a wind machine - Model "ESST4B" cannot be attached

 Machine is a wind machine - Model "GENSAL" cannot be attached

 Machine is a wind machine - Model "HYGOV" cannot be attached

 Machine is a wind machine - Model "PSS2A" cannot be attached

 Machine is a wind machine - Model "ESST4B" cannot be attached

 Machine is a wind machine - Model "GENSAL" cannot be attached

 Machine is a wind machine - Model "HYGOV" cannot be attached

 Machine is a wind machine - Model "PSS2A" cannot be attached

 Machine is a wind machine - Model "ESST4B" cannot be attached

 Machine is a wind machine - Model "GENSAL" cannot be attached

 Machine is a wind machine - Model "HYGOV" cannot be attached

 Machine is a wind machine - Model "PSS2A" cannot be attached

 Machine is a wind machine - Model "ESST4B" cannot be attached

 Machine is a wind machine - Model "GENSAL" cannot be attached

 Machine is a wind machine - Model "HYGOV" cannot be attached

 Machine is a wind machine - Model "PSS2A" cannot be attached

 Machine is a wind machine - Model "ESST4B" cannot be attached

 Machine is a wind machine - Model "GENSAL" cannot be attached

 Machine is a wind machine - Model "HYGOV" cannot be attached

 Machine is a wind machine - Model "PSS2A" cannot be attached

 Machine is a wind machine - Model "ESST4B" cannot be attached

 Machine is a wind machine - Model "GENSAL" cannot be attached

 Machine is a wind machine - Model "HYGOV" cannot be attached

 Machine is a wind machine - Model "PSS2A" cannot be attached

 Machine is a wind machine - Model "ESST4B" cannot be attached

 Machine is a wind machine - Model "GENSAL" cannot be attached

 Machine is a wind machine - Model "HYGOV" cannot be attached

 Machine is a wind machine - Model "PSS2A" cannot be attached

 Machine is a wind machine - Model "ESST4B" cannot be attached

 Machine is a wind machine - Model "GENSAL" cannot be attached

 Machine is a wind machine - Model "HYGOV" cannot be attached

 Machine is a wind machine - Model "PSS2A" cannot be attached

 Machine is a wind machine - Model "ESST4B" cannot be attached

 Machine is a wind machine - Model "GENSAL" cannot be attached

 Machine is a wind machine - Model "HYGOV" cannot be attached

 Machine is a wind machine - Model "PSS2A" cannot be attached

 Machine is a wind machine - Model "ESST4B" cannot be attached

 Machine is a wind machine - Model "GENSAL" cannot be attached

 Machine is a wind machine - Model "HYGOV" cannot be attached

 Machine is a wind machine - Model "PSS2A" cannot be attached

 Machine is a wind machine - Model "ESST4B" cannot be attached

 Machine is a wind machine - Model "GENSAL" cannot be attached

 Machine is a wind machine - Model "HYGOV" cannot be attached

 Machine is a wind machine - Model "PSS2A" cannot be attached

 Machine is a wind machine - Model "ESST4B" cannot be attached

 Machine is a wind machine - Model "GENSAL" cannot be attached

 Machine is a wind machine - Model "HYGOV" cannot be attached

 Machine is a wind machine - Model "PSS2A" cannot be attached

 Machine is a wind machine - Model "ESST4B" cannot be attached

 Machine is a wind machine - Model "GENSAL" cannot be attached

 Machine is a wind machine - Model "HYGOV" cannot be attached

 Machine is a wind machine - Model "PSS2A" cannot be attached

 Machine is a wind machine - Model "ESST4B" cannot be attached

 Machine is a wind machine - Model "GENSAL" cannot be attached

 Machine is a wind machine - Model "HYGOV" cannot be attached

 Machine is a wind machine - Model "PSS2A" cannot be attached

 Machine is a wind machine - Model "ESST4B" cannot be attached

 Machine is a wind machine - Model "GENSAL" cannot be attached

 Machine is a wind machine - Model "HYGOV" cannot be attached

 Machine is a wind machine - Model "PSS2A" cannot be attached

 Machine is a wind machine - Model "ESST4B" cannot be attached

 Machine is a wind machine - Model "GENSAL" cannot be attached

 Machine is a wind machine - Model "HYGOV" cannot be attached

 Machine is a wind machine - Model "PSS2A" cannot be attached

 Machine is a wind machine - Model "ESST4B" cannot be attached

 Machine is a wind machine - Model "GENSAL" cannot be attached

 Machine is a wind machine - Model "HYGOV" cannot be attached

 Machine is a wind machine - Model "PSS2A" cannot be attached

 Machine is a wind machine - Model "ESST4B" cannot be attached

 Machine is a wind machine - Model "GENSAL" cannot be attached

 Machine is a wind machine - Model "HYGOV" cannot be attached

 Machine is a wind machine - Model "PSS2A" cannot be attached

 Machine is a wind machine - Model "ESST4B" cannot be attached

 Machine is a wind machine - Model "GENSAL" cannot be attached

 Machine is a wind machine - Model "HYGOV" cannot be attached

 Machine is a wind machine - Model "PSS2A" cannot be attached

 Machine is a wind machine - Model "ESST4B" cannot be attached

 Machine is a wind machine - Model "GENSAL" cannot be attached

 Machine is a wind machine - Model "HYGOV" cannot be attached

 Machine is a wind machine - Model "PSS2A" cannot be attached

 Machine is a wind machine - Model "ESST4B" cannot be attached

 Machine is a wind machine - Model "GENSAL" cannot be attached

 Machine is a wind machine - Model "HYGOV" cannot be attached

 Machine is a wind machine - Model "PSS2A" cannot be attached

 Machine is a wind machine - Model "ESST4B" cannot be attached

 Machine is a wind machine - Model "GENSAL" cannot be attached

 Machine is a wind machine - Model "HYGOV" cannot be attached

 Machine is a wind machine - Model "PSS2A" cannot be attached

 Machine is a wind machine - Model "ESST4B" cannot be attached

 Machine is a wind machine - Model "GENSAL" cannot be attached

 Machine is a wind machine - Model "HYGOV" cannot be attached

 Machine is a wind machine - Model "PSS2A" cannot be attached

 Machine is a wind machine - Model "EXAC4" cannot be attached

 Machine is a wind machine - Model "GENSAL" cannot be attached

 Machine is a wind machine - Model "HYGOV" cannot be attached

 Machine is a wind machine - Model "PSS2A" cannot be attached

 Machine is a wind machine - Model "ESST4B" cannot be attached

 Machine is a wind machine - Model "GENSAL" cannot be attached

 Machine is a wind machine - Model "HYGOV" cannot be attached

 Machine is a wind machine - Model "PSS2A" cannot be attached

 Machine is a wind machine - Model "ESST4B" cannot be attached

 Machine is a wind machine - Model "GENSAL" cannot be attached

 Machine is a wind machine - Model "HYGOV" cannot be attached

 Machine is a wind machine - Model "PSS2A" cannot be attached

 Machine is a wind machine - Model "ESST4B" cannot be attached

 Machine is a wind machine - Model "GENSAL" cannot be attached

 Machine is a wind machine - Model "HYGOV" cannot be attached

 Machine is a wind machine - Model "PSS2A" cannot be attached

 Machine is a wind machine - Model "ESST4B" cannot be attached

 Machine is a wind machine - Model "GENSAL" cannot be attached

 Machine is a wind machine - Model "HYGOV" cannot be attached

 Machine is a wind machine - Model "PSS2A" cannot be attached

 Machine is a wind machine - Model "ESST4B" cannot be attached

 Machine is a wind machine - Model "GENSAL" cannot be attached

 Machine is a wind machine - Model "HYGOV" cannot be attached

 Machine is a wind machine - Model "PSS2A" cannot be attached

 Machine is a wind machine - Model "ESST4B" cannot be attached

 Machine is a wind machine - Model "GENSAL" cannot be attached

 Machine is a wind machine - Model "HYGOV" cannot be attached

 Machine is a wind machine - Model "PSS2A" cannot be attached

 Machine is a wind machine - Model "ESST4B" cannot be attached

 Machine is a wind machine - Model "GENSAL" cannot be attached

 Machine is a wind machine - Model "HYGOV" cannot be attached

 Machine is a wind machine - Model "PSS2A" cannot be attached

 Machine is a wind machine - Model "ESST4B" cannot be attached

 Machine is a wind machine - Model "GENSAL" cannot be attached

 Machine is a wind machine - Model "HYGOV" cannot be attached

 Machine is a wind machine - Model "PSS2A" cannot be attached

 Machine is a wind machine - Model "ESST4B" cannot be attached

 Machine is a wind machine - Model "GENROU" cannot be attached

 Machine is a wind machine - Model "TGOV1" cannot be attached

 Machine is a wind machine - Model "PSS2A" cannot be attached

 Machine is a wind machine - Model "EXAC4" cannot be attached

 Machine is a wind machine - Model "GENSAL" cannot be attached

 Machine is a wind machine - Model "HYGOV" cannot be attached

 Machine is a wind machine - Model "PSS2A" cannot be attached

 Machine is a wind machine - Model "EXAC4" cannot be attached

 Machine is a wind machine - Model "GENSAL" cannot be attached

 Machine is a wind machine - Model "HYGOV" cannot be attached

 Machine is a wind machine - Model "PSS2A" cannot be attached

 Machine is a wind machine - Model "ESST4B" cannot be attached

 Machine is a wind machine - Model "GENROU" cannot be attached

 Machine is a wind machine - Model "TGOV1" cannot be attached

 Machine is a wind machine - Model "PSS2A" cannot be attached

 Machine is a wind machine - Model "ESST4B" cannot be attached

 Machine is a wind machine - Model "GENSAL" cannot be attached

 Machine is a wind machine - Model "HYGOV" cannot be attached

 Machine is a wind machine - Model "PSS2A" cannot be attached

 Machine is a wind machine - Model "ESST4B" cannot be attached

 Machine is a wind machine - Model "GENSAL" cannot be attached

 Machine is a wind machine - Model "HYGOV" cannot be attached

 Machine is a wind machine - Model "PSS2A" cannot be attached

 Machine is a wind machine - Model "ESST4B" cannot be attached

 Machine is a wind machine - Model "GENSAL" cannot be attached

 Machine is a wind machine - Model "HYGOV" cannot be attached

 Machine is a wind machine - Model "PSS2A" cannot be attached

 Machine is a wind machine - Model "ESST4B" cannot be attached

 Machine is a wind machine - Model "GENSAL" cannot be attached

 Machine is a wind machine - Model "HYGOV" cannot be attached

 Machine is a wind machine - Model "PSS2A" cannot be attached

 Machine is a wind machine - Model "ESST4B" cannot be attached

 Machine is a wind machine - Model "GENSAL" cannot be attached

 Machine is a wind machine - Model "HYGOV" cannot be attached

 Machine is a wind machine - Model "PSS2A" cannot be attached

 Machine is a wind machine - Model "ESST4B" cannot be attached

 Machine is a wind machine - Model "GENSAL" cannot be attached

 Machine is a wind machine - Model "HYGOV" cannot be attached

 Machine is a wind machine - Model "PSS2A" cannot be attached

 Machine is a wind machine - Model "ESST4B" cannot be attached

 Machine is a wind machine - Model "GENSAL" cannot be attached

 Machine is a wind machine - Model "HYGOV" cannot be attached

 Machine is a wind machine - Model "PSS2A" cannot be attached

 Machine is a wind machine - Model "ESST4B" cannot be attached

 Machine is a wind machine - Model "GENSAL" cannot be attached

 Machine is a wind machine - Model "HYGOV" cannot be attached

 Machine is a wind machine - Model "PSS2A" cannot be attached

 Machine is a wind machine - Model "ESST4B" cannot be attached

 Machine is a wind machine - Model "ESST4B" cannot be attached

 Machine is a wind machine - Model "ESST4B" cannot be attached

 Machine is a wind machine - Model "ESST4B" cannot be attached

 Machine is a wind machine - Model "GENSAL" cannot be attached

 Machine is a wind machine - Model "GENSAL" cannot be attached

 Machine is a wind machine - Model "GENSAL" cannot be attached

 Machine is a wind machine - Model "GENSAL" cannot be attached

 Machine is a wind machine - Model "HYGOV" cannot be attached

 Machine is a wind machine - Model "HYGOV" cannot be attached

 Machine is a wind machine - Model "HYGOV" cannot be attached

 Machine is a wind machine - Model "HYGOV" cannot be attached

 Machine is a wind machine - Model "PSS2A" cannot be attached

 Machine is a wind machine - Model "PSS2A" cannot be attached

 Machine is a wind machine - Model "PSS2A" cannot be attached

 Machine is a wind machine - Model "PSS2A" cannot be attached

 Duplicate model type: "ESST4B" at bus 931022 machine "1"
 RECORD IGNORED:
 931022	'ESST4B'	1	0	15	15	5	-0.87	0	1	0	99	-99	0	9.3	0	11.63	0.113	0.124	0	/	/	0	0	0	0	0	0	TRUE

 Duplicate model type: "ESST4B" at bus 955022 machine "1"
 RECORD IGNORED:
 955022	'ESST4B'	1	0	10.75	10.75	5	-0.87	0	1	0	99	-99	0	9.3	0	11.63	0.113	0.124	0	/	/	0	0	0	0	0	0	TRUE

 Duplicate model type: "ESST4B" at bus 954092 machine "1"
 RECORD IGNORED:
 954092	'ESST4B'	1	0	15	15	5	-0.87	0	1	0	99	-99	0	9.3	0	11.63	0.113	0.124	0	/	/	0	0	0	0	0	0	TRUE

 Duplicate model type: "ESST4B" at bus 916083 machine "1"
 RECORD IGNORED:
 916083	'ESST4B'	1	0	10.75	10.75	5	-0.87	0	1	0	99	-99	0	9.3	0	11.63	0.113	0.124	0	/	0	0	0	0	0	0	0	TRUE

 Duplicate model type: "ESST4B" at bus 916083 machine "1"
 RECORD IGNORED:
 916083	'ESST4B'	1	0	10.75	10.75	5	-0.87	0	1	0	99	-99	0	9.3	0	11.63	0.113	0.124	0	/	0	0	0	0	0	0	0	TRUE

 Duplicate model type: "GENSAL" at bus 931022 machine "1"
 RECORD IGNORED:
 931022	'GENSAL'	1	6.6	0.05	0.155	2	0	1.13	0.734	0.26	0.28	0.104	0.194	0.685	/	/

 Duplicate model type: "GENSAL" at bus 955022 machine "1"
 RECORD IGNORED:
 955022	'GENSAL'	1	6.6	0.05	0.155	2	0	1.13	0.734	0.26	0.22	0.104	0.194	0.685	/	/

 Duplicate model type: "GENSAL" at bus 954092 machine "1"
 RECORD IGNORED:
 954092	'GENSAL'	1	6.6	0.05	0.155	2	0	1.13	0.734	0.26	0.22	0.104	0.194	0.685	/	/

 Duplicate model type: "GENSAL" at bus 916083 machine "1"
 RECORD IGNORED:
 916083	'GENSAL'	1	6.6	0.05	0.155	2	0	1.13	0.734	0.26	0.23	0.104	0.194	0.685	/	/

 Duplicate model type: "GENSAL" at bus 916083 machine "1"
 RECORD IGNORED:
 916083	'GENSAL'	1	6.6	0.05	0.155	2	0	1.13	0.734	0.26	0.23	0.104	0.194	0.685	/	/

 Duplicate model type: "HYGOV" at bus 931022 machine "1"
 RECORD IGNORED:
 931022	'HYGOV'	1	0.06	0.4	3	0.099	0.4	0.15	1	0.1	1.35	1.4	0.1	0.1	/	/	0	0	0	0	0	0	0	0	0	0	0

 Duplicate model type: "HYGOV" at bus 955022 machine "1"
 RECORD IGNORED:
 955022	'HYGOV'	1	0.06	0.4	3	0.099	0.4	0.15	1	0.1	1.35	1.4	0.1	0.1	/	/	0	0	0	0	0	0	0	0	0	0	0

 Duplicate model type: "HYGOV" at bus 954092 machine "1"
 RECORD IGNORED:
 954092	'HYGOV'	1	0.06	0.4	3	0.099	0.4	0.15	1	0.1	1.35	1.4	0.1	0.1	/	/	0	0	0	0	0	0	0	0	0	0	0

 Duplicate model type: "HYGOV" at bus 916083 machine "1"
 RECORD IGNORED:
 916083	'HYGOV'	1	0.06	0.4	3	0.099	0.4	0.15	1	0.1	1.35	1.4	0.1	0.1	/	/	0	0	0	0	0	0	0	0	0	0	0

 Duplicate model type: "HYGOV" at bus 916083 machine "1"
 RECORD IGNORED:
 916083	'HYGOV'	1	0.06	0.4	3	0.099	0.4	0.15	1	0.1	1.35	1.4	0.1	0.1	/	/	0	0	0	0	0	0	0	0	0	0	0

 Duplicate model type: "PSS2A" at bus 931022 machine "1"
 RECORD IGNORED:
 931022	'PSS2A'	1	1	0	3	0	5	1	2.5	2.5	0	2.5	0	2.5	0.39	1	0	0.1	6.5	0.44	0.08	0.2	0.98	0.1	-0.1	/	0

 Duplicate model type: "PSS2A" at bus 955022 machine "1"
 RECORD IGNORED:
 955022	'PSS2A'	1	1	0	3	0	5	1	2.5	2.5	0	2.5	0	2.5	0.39	1	0	0.1	6.5	0.44	0.08	0.2	0.98	0.1	-0.1	/	0

 Duplicate model type: "PSS2A" at bus 954092 machine "1"
 RECORD IGNORED:
 954092	'PSS2A'	1	1	0	3	0	5	1	2.5	2.5	0	2.5	0	2.5	0.39	1	0	0.1	6.5	0.44	0.08	0.2	0.98	0.1	-0.1	/	0

 Duplicate model type: "PSS2A" at bus 916083 machine "1"
 RECORD IGNORED:
 916083	'PSS2A'	1	1	0	3	0	5	1	2.5	2.5	0	2.5	0	2.5	0.39	1	0	0.1	6.5	0.44	0.08	0.2	0.98	0.1	-0.1	/	0

 Duplicate model type: "PSS2A" at bus 916083 machine "1"
 RECORD IGNORED:
 916083	'PSS2A'	1	1	0	3	0	5	1	2.5	2.5	0	2.5	0	2.5	0.39	1	0	0.1	6.5	0.44	0.08	0.2	0.98	0.1	-0.1	/	0
 Out of file data--switch to terminal input mode

 Generator models use:
  CONS        1- 10958
  STATES      1-  4601

 Stabilizer models use:
  CONS    10959- 25867
  STATES   4602- 18633
  VARS        1-  3508
  ICONS       1-  5262

 Excitation System models use:
  CONS    25868- 40060
  STATES  18634- 22038
  ICONS    5263-  5264

 Turbine Governor models use:
  CONS    40061- 49649
  STATES  22039- 25182
  VARS     3509-  5053

 Wind Generator models use:
  CONS    49650- 50881
  STATES  25183- 25446
  VARS     5054-  5405
  ICONS    5265-  5352

 Wind Electrical models use:
  CONS    50882- 54841
  STATES  25447- 25974
  VARS     5406-  6197
  ICONS    5353-  5880

 Wind Auxiliary models use:
  CONS    54842- 57217
  STATES  25975- 26590
  VARS     6198-  6989
  ICONS    5881-  6496


 SUMMARY OF MODELS READ:

 GENS:  GENROU           GENSAL
         211              667

 STABS: PSS2A
         877

 EXSYS: EXAC4            ESST1A           ESST4B
         100                1              775

 GOVS:  TGOV1            GAST             HYGOV
         157               54              667

 USER:  USRMDL
         264

 NEXT AVAILABLE ADDRESSES ARE:
    CON  STATE    VAR   ICON
  57218  26591   6990   6497

 Only PSS/E supplied models in case. Compilation is not required

 CHANNEL  610 WITH IDENTIFIER "ANGLE_HOABINH_H1" ADDED

 CHANNEL  611 WITH IDENTIFIER "ANGLE_SONLA_H1" ADDED

 CHANNEL  612 WITH IDENTIFIER "ANGLE_LAICHAU_H1" ADDED

 CHANNEL  613 WITH IDENTIFIER "ANGLE_MONGDUONG_S1" ADDED

 CHANNEL  614 WITH IDENTIFIER "ANGLE_QUANGNINH_S1" ADDED

 CHANNEL  615 WITH IDENTIFIER "ANGLE_THANGLONG_S1" ADDED

 CHANNEL  616 WITH IDENTIFIER "ANGLE_THANGLONG_S1" ADDED

 CHANNEL  617 WITH IDENTIFIER "ANGLE_VUNGANG_S1" ADDED

 CHANNEL  618 WITH IDENTIFIER "ANGLE_YALI_H1" ADDED

 CHANNEL  619 WITH IDENTIFIER "ANGLE_XEKAMAN3_H1" ADDED

 CHANNEL  620 WITH IDENTIFIER "ANGLE_SONGBUNG_H1" ADDED

 CHANNEL  621 WITH IDENTIFIER "ANGLE_SESAN3A_H1" ADDED

 CHANNEL  622 WITH IDENTIFIER "ANGLE_DAKMI4_H1" ADDED

 CHANNEL  623 WITH IDENTIFIER "ANGLE_THUONGKONTUM_H1" ADDED

 CHANNEL  624 WITH IDENTIFIER "ANGLE_ANKHE_H1" ADDED

 CHANNEL  625 WITH IDENTIFIER "ANGLE_SESAN4_H1" ADDED

 CHANNEL  626 WITH IDENTIFIER "ANGLE_BUONKHOP_H1" ADDED

 CHANNEL  627 WITH IDENTIFIER "ANGLE_DONGNAI4_H1" ADDED

 CHANNEL  628 WITH IDENTIFIER "ANGLE_DONGNAI3_H1" ADDED

 CHANNEL  629 WITH IDENTIFIER "ANGLE_VINHTAN_S1" ADDED

 CHANNEL  630 WITH IDENTIFIER "ANGLE_VINHTAN_S2" ADDED

 CHANNEL  631 WITH IDENTIFIER "ANGLE_PHUMY_S1" ADDED

 CHANNEL  632 WITH IDENTIFIER "ANGLE_DUYENHAI_S1" ADDED

 CHANNEL  633 WITH IDENTIFIER "ANGLE_SONGHAU_S1" ADDED

 CHANNEL  634 WITH IDENTIFIER "ANGLE_OMON_S1" ADDED

 CHANNEL  635 WITH IDENTIFIER "PELEC_HOABINH_H1" ADDED

 CHANNEL  636 WITH IDENTIFIER "PELEC_SONLA_H1" ADDED

 CHANNEL  637 WITH IDENTIFIER "PELEC_LAICHAU_H1" ADDED

 CHANNEL  638 WITH IDENTIFIER "PELEC_MONGDUONG_S1" ADDED

 CHANNEL  639 WITH IDENTIFIER "PELEC_QUANGNINH_S1" ADDED

 CHANNEL  640 WITH IDENTIFIER "PELEC_THANGLONG_S1" ADDED

 CHANNEL  641 WITH IDENTIFIER "PELEC_THANGLONG_S1" ADDED

 CHANNEL  642 WITH IDENTIFIER "PELEC_VUNGANG_S1" ADDED

 CHANNEL  643 WITH IDENTIFIER "PELEC_YALI_H1" ADDED

 CHANNEL  644 WITH IDENTIFIER "PELEC_YALI_H1" ADDED

 CHANNEL  645 WITH IDENTIFIER "PELEC_XEKAMAN3_H1" ADDED

 CHANNEL  646 WITH IDENTIFIER "PELEC_SONGBUNG_H1" ADDED

 CHANNEL  647 WITH IDENTIFIER "PELEC_SESAN3A_H1" ADDED

 CHANNEL  648 WITH IDENTIFIER "PELEC_DAKMI4_H1" ADDED

 CHANNEL  649 WITH IDENTIFIER "PELEC_THUONGKONTUM_H1" ADDED

 CHANNEL  650 WITH IDENTIFIER "PELEC_ANKHE_H1" ADDED

 CHANNEL  651 WITH IDENTIFIER "PELEC_SESAN4_H1" ADDED

 CHANNEL  652 WITH IDENTIFIER "PELEC_BUONKHOP_H1" ADDED

 CHANNEL  653 WITH IDENTIFIER "PELEC_DONGNAI4_H1" ADDED

 CHANNEL  654 WITH IDENTIFIER "PELEC_DONGNAI3_H1" ADDED

 CHANNEL  655 WITH IDENTIFIER "PELEC_VINHTAN_S1" ADDED

 CHANNEL  656 WITH IDENTIFIER "PELEC_VINHTAN_S2" ADDED

 CHANNEL  657 WITH IDENTIFIER "PELEC_PHUMY_S1" ADDED

 CHANNEL  658 WITH IDENTIFIER "PELEC_DUYENHAI_S1" ADDED

 CHANNEL  659 WITH IDENTIFIER "PELEC_SONGHAU_S1" ADDED

 CHANNEL  660 WITH IDENTIFIER "PELEC_OMON_S1" ADDED

 CHANNEL  661 WITH IDENTIFIER "QELEC_HOABINH_H1" ADDED

 CHANNEL  662 WITH IDENTIFIER "QELEC_SONLA_H1" ADDED

 CHANNEL  663 WITH IDENTIFIER "QELEC_LAICHAU_H1" ADDED

 CHANNEL  664 WITH IDENTIFIER "QELEC_MONGDUONG_S1" ADDED

 CHANNEL  665 WITH IDENTIFIER "QELEC_QUANGNINH_S1" ADDED

 CHANNEL  666 WITH IDENTIFIER "QELEC_THANGLONG_S1" ADDED

 CHANNEL  667 WITH IDENTIFIER "QELEC_THANGLONG_S1" ADDED

 CHANNEL  668 WITH IDENTIFIER "QELEC_VUNGANG_S1" ADDED

 CHANNEL  669 WITH IDENTIFIER "QELEC_YALI_H1" ADDED

 CHANNEL  670 WITH IDENTIFIER "QELEC_VINHTAN_S1" ADDED

 CHANNEL  671 WITH IDENTIFIER "QELEC_VINHTAN_S2" ADDED

 CHANNEL  672 WITH IDENTIFIER "QELEC_PHUMY_S1" ADDED

 CHANNEL  673 WITH IDENTIFIER "QELEC_DUYENHAI_S1" ADDED

 CHANNEL  674 WITH IDENTIFIER "QELEC_SONGHAU_S1" ADDED

 CHANNEL  675 WITH IDENTIFIER "QELEC_OMON_S1" ADDED

 CHANNEL  676 WITH IDENTIFIER "PMECH_HOABINH_H1" ADDED

 CHANNEL  677 WITH IDENTIFIER "PMECH_SONLA_H1" ADDED

 CHANNEL  678 WITH IDENTIFIER "PMECH_LAICHAU_H1" ADDED

 CHANNEL  679 WITH IDENTIFIER "PMECH_MONGDUONG_S1" ADDED

 CHANNEL  680 WITH IDENTIFIER "PMECH_QUANGNINH_S1" ADDED

 CHANNEL  681 WITH IDENTIFIER "PMECH_THANGLONG_S1" ADDED

 CHANNEL  682 WITH IDENTIFIER "PMECH_THANGLONG_S1" ADDED

 CHANNEL  683 WITH IDENTIFIER "PMECH_VUNGANG_S1" ADDED

 CHANNEL  684 WITH IDENTIFIER "PMECH_YALI_H1" ADDED

 CHANNEL  685 WITH IDENTIFIER "PMECH_VINHTAN_S1" ADDED

 CHANNEL  686 WITH IDENTIFIER "PMECH_VINHTAN_S2" ADDED

 CHANNEL  687 WITH IDENTIFIER "PMECH_PHUMY_S1" ADDED

 CHANNEL  688 WITH IDENTIFIER "PMECH_DUYENHAI_S1" ADDED

 CHANNEL  689 WITH IDENTIFIER "PMECH_SONGHAU_S1" ADDED

 CHANNEL  690 WITH IDENTIFIER "PMECH_OMON_S1" ADDED

 CHANNEL  691 WITH IDENTIFIER "VOLTAGE_LAICHAU" ADDED

 CHANNEL  692 WITH IDENTIFIER "VOLTAGE_TDLAICHAU" ADDED

 CHANNEL  693 WITH IDENTIFIER "VOLTAGE_SONLA" ADDED

 CHANNEL  694 WITH IDENTIFIER "VOLTAGE_VIETTRI" ADDED

 CHANNEL  695 WITH IDENTIFIER "VOLTAGE_HIEPHOA" ADDED

 CHANNEL  696 WITH IDENTIFIER "VOLTAGE_QUANGNINH" ADDED

 CHANNEL  697 WITH IDENTIFIER "VOLTAGE_MONGDUONG" ADDED

 CHANNEL  698 WITH IDENTIFIER "VOLTAGE_NDTHANGLONG" ADDED

 CHANNEL  699 WITH IDENTIFIER "VOLTAGE_PHONOI" ADDED

 CHANNEL  700 WITH IDENTIFIER "VOLTAGE_DONGANH" ADDED

 CHANNEL  701 WITH IDENTIFIER "VOLTAGE_THUONGTIN" ADDED

 CHANNEL  702 WITH IDENTIFIER "VOLTAGE_TAYHANOI" ADDED

 CHANNEL  703 WITH IDENTIFIER "VOLTAGE_NHOQUAN" ADDED

 CHANNEL  704 WITH IDENTIFIER "VOLTAGE_NGHISON" ADDED

 CHANNEL  705 WITH IDENTIFIER "VOLTAGE_HATINH" ADDED

 CHANNEL  706 WITH IDENTIFIER "VOLTAGE_VUNGANG" ADDED

 CHANNEL  707 WITH IDENTIFIER "VOLTAGE_DANANG" ADDED

 CHANNEL  708 WITH IDENTIFIER "VOLTAGE_DOCSOI" ADDED

 CHANNEL  709 WITH IDENTIFIER "VOLTAGE_THANHMY" ADDED

 CHANNEL  710 WITH IDENTIFIER "VOLTAGE_PLEIKU" ADDED

 CHANNEL  711 WITH IDENTIFIER "VOLTAGE_TDYALI" ADDED

 CHANNEL  712 WITH IDENTIFIER "VOLTAGE_PLEIKU3" ADDED

 CHANNEL  713 WITH IDENTIFIER "VOLTAGE_PLEIKU2" ADDED

 CHANNEL  714 WITH IDENTIFIER "VOLTAGE_DAKNONG" ADDED

 CHANNEL  715 WITH IDENTIFIER "VOLTAGE_DILINH" ADDED

 CHANNEL  716 WITH IDENTIFIER "VOLTAGE_THUANNAM" ADDED

 CHANNEL  717 WITH IDENTIFIER "VOLTAGE_VINHTAN" ADDED

 CHANNEL  718 WITH IDENTIFIER "VOLTAGE_SONGMAY" ADDED

 CHANNEL  719 WITH IDENTIFIER "VOLTAGE_TANUYEN" ADDED

 CHANNEL  720 WITH IDENTIFIER "VOLTAGE_TANDINH" ADDED

 CHANNEL  721 WITH IDENTIFIER "VOLTAGE_CAUBONG" ADDED

 CHANNEL  722 WITH IDENTIFIER "VOLTAGE_DUCHOA" ADDED

 CHANNEL  723 WITH IDENTIFIER "VOLTAGE_PHULAM" ADDED

 CHANNEL  724 WITH IDENTIFIER "VOLTAGE_NHABE" ADDED

 CHANNEL  725 WITH IDENTIFIER "VOLTAGE_PHUMY" ADDED

 CHANNEL  726 WITH IDENTIFIER "VOLTAGE_MYTHO" ADDED

 CHANNEL  727 WITH IDENTIFIER "VOLTAGE_DUYENHAI" ADDED

 CHANNEL  728 WITH IDENTIFIER "VOLTAGE_SONGHAU" ADDED

 CHANNEL  729 WITH IDENTIFIER "VOLTAGE_OMON" ADDED

 CHANNEL  730 WITH IDENTIFIER "VOLTAGE_LONGPHU" ADDED

 CHANNEL  731 WITH IDENTIFIER "BSFREQ_LAICHAU" ADDED

 CHANNEL  732 WITH IDENTIFIER "BSFREQ_TDLAICHAU" ADDED

 CHANNEL  733 WITH IDENTIFIER "BSFREQ_SONLA" ADDED

 CHANNEL  734 WITH IDENTIFIER "BSFREQ_VIETTRI" ADDED

 CHANNEL  735 WITH IDENTIFIER "BSFREQ_HIEPHOA" ADDED

 CHANNEL  736 WITH IDENTIFIER "BSFREQ_QUANGNINH" ADDED

 CHANNEL  737 WITH IDENTIFIER "BSFREQ_MONGDUONG" ADDED

 CHANNEL  738 WITH IDENTIFIER "BSFREQ_NDTHANGLONG" ADDED

 CHANNEL  739 WITH IDENTIFIER "BSFREQ_PHONOI" ADDED

 CHANNEL  740 WITH IDENTIFIER "BSFREQ_DONGANH" ADDED

 CHANNEL  741 WITH IDENTIFIER "BSFREQ_THUONGTIN" ADDED

 CHANNEL  742 WITH IDENTIFIER "BSFREQ_TAYHANOI" ADDED

 CHANNEL  743 WITH IDENTIFIER "BSFREQ_NHOQUAN" ADDED

 CHANNEL  744 WITH IDENTIFIER "BSFREQ_NGHISON" ADDED

 CHANNEL  745 WITH IDENTIFIER "BSFREQ_HATINH" ADDED

 CHANNEL  746 WITH IDENTIFIER "BSFREQ_VUNGANG" ADDED

 CHANNEL  747 WITH IDENTIFIER "BSFREQ_DANANG" ADDED

 CHANNEL  748 WITH IDENTIFIER "BSFREQ_DOCSOI" ADDED

 CHANNEL  749 WITH IDENTIFIER "BSFREQ_THANHMY" ADDED

 CHANNEL  750 WITH IDENTIFIER "BSFREQ_PLEIKU" ADDED

 CHANNEL  751 WITH IDENTIFIER "BSFREQ_TDYALI" ADDED

 CHANNEL  752 WITH IDENTIFIER "BSFREQ_PLEIKU3" ADDED

 CHANNEL  753 WITH IDENTIFIER "BSFREQ_PLEIKU2" ADDED

 CHANNEL  754 WITH IDENTIFIER "BSFREQ_DAKNONG" ADDED

 CHANNEL  755 WITH IDENTIFIER "BSFREQ_DILINH" ADDED

 CHANNEL  756 WITH IDENTIFIER "BSFREQ_THUANNAM" ADDED

 CHANNEL  757 WITH IDENTIFIER "BSFREQ_VINHTAN" ADDED

 CHANNEL  758 WITH IDENTIFIER "BSFREQ_SONGMAY" ADDED

 CHANNEL  759 WITH IDENTIFIER "BSFREQ_TANUYEN" ADDED

 CHANNEL  760 WITH IDENTIFIER "BSFREQ_TANDINH" ADDED

 CHANNEL  761 WITH IDENTIFIER "BSFREQ_CAUBONG" ADDED

 CHANNEL  762 WITH IDENTIFIER "BSFREQ_DUCHOA" ADDED

 CHANNEL  763 WITH IDENTIFIER "BSFREQ_PHULAM" ADDED

 CHANNEL  764 WITH IDENTIFIER "BSFREQ_NHABE" ADDED

 CHANNEL  765 WITH IDENTIFIER "BSFREQ_PHUMY" ADDED

 CHANNEL  766 WITH IDENTIFIER "BSFREQ_MYTHO" ADDED

 CHANNEL  767 WITH IDENTIFIER "BSFREQ_DUYENHAI" ADDED

 CHANNEL  768 WITH IDENTIFIER "BSFREQ_SONGHAU" ADDED

 CHANNEL  769 WITH IDENTIFIER "BSFREQ_OMON" ADDED

 CHANNEL  770 WITH IDENTIFIER "BSFREQ_LONGPHU" ADDED

 Snapshot at TIME = 50.00761 saved in file ssn1.snp on THU, NOV 04 2021  17:06

 3807 diagonal and 8118 off-diagonal elements
 REPCAU1 AT BUS  916038 MACHINE '1 ': REMOTE BUS NOT SPECIFIED OR NOT FOUND. WILL CONTROL LOCAL BUS
 REPCAU1 AT BUS  991087 MACHINE '1 ': REMOTE BUS NOT SPECIFIED OR NOT FOUND. WILL CONTROL LOCAL BUS
 REPCAU1 AT BUS  971081 MACHINE '1 ': REMOTE BUS NOT SPECIFIED OR NOT FOUND. WILL CONTROL LOCAL BUS
 REPCAU1 AT BUS  971082 MACHINE '1 ': REMOTE BUS NOT SPECIFIED OR NOT FOUND. WILL CONTROL LOCAL BUS
 REPCAU1 AT BUS  971085 MACHINE '1 ': REMOTE BUS NOT SPECIFIED OR NOT FOUND. WILL CONTROL LOCAL BUS
 REPCAU1 AT BUS  971102 MACHINE '1 ': REMOTE BUS NOT SPECIFIED OR NOT FOUND. WILL CONTROL LOCAL BUS
 REPCAU1 AT BUS  971111 MACHINE '1 ': REMOTE BUS NOT SPECIFIED OR NOT FOUND. WILL CONTROL LOCAL BUS
 REPCAU1 AT BUS  971112 MACHINE '1 ': REMOTE BUS NOT SPECIFIED OR NOT FOUND. WILL CONTROL LOCAL BUS
 REPCAU1 AT BUS  971113 MACHINE '1 ': REMOTE BUS NOT SPECIFIED OR NOT FOUND. WILL CONTROL LOCAL BUS
 REPCAU1 AT BUS  971121 MACHINE '1 ': REMOTE BUS NOT SPECIFIED OR NOT FOUND. WILL CONTROL LOCAL BUS
 REPCAU1 AT BUS  971122 MACHINE '1 ': REMOTE BUS NOT SPECIFIED OR NOT FOUND. WILL CONTROL LOCAL BUS
 REPCAU1 AT BUS  971123 MACHINE '1 ': REMOTE BUS NOT SPECIFIED OR NOT FOUND. WILL CONTROL LOCAL BUS
 REPCAU1 AT BUS  971124 MACHINE '1 ': REMOTE BUS NOT SPECIFIED OR NOT FOUND. WILL CONTROL LOCAL BUS
 REPCAU1 AT BUS  971125 MACHINE '1 ': REMOTE BUS NOT SPECIFIED OR NOT FOUND. WILL CONTROL LOCAL BUS
 REPCAU1 AT BUS  971126 MACHINE '1 ': REMOTE BUS NOT SPECIFIED OR NOT FOUND. WILL CONTROL LOCAL BUS
 REPCAU1 AT BUS  971131 MACHINE '1 ': REMOTE BUS NOT SPECIFIED OR NOT FOUND. WILL CONTROL LOCAL BUS
 REPCAU1 AT BUS  971132 MACHINE '1 ': REMOTE BUS NOT SPECIFIED OR NOT FOUND. WILL CONTROL LOCAL BUS
 REPCAU1 AT BUS  971133 MACHINE '1 ': REMOTE BUS NOT SPECIFIED OR NOT FOUND. WILL CONTROL LOCAL BUS
 REPCAU1 AT BUS  971141 MACHINE '1 ': REMOTE BUS NOT SPECIFIED OR NOT FOUND. WILL CONTROL LOCAL BUS
 REPCAU1 AT BUS  971142 MACHINE '1 ': REMOTE BUS NOT SPECIFIED OR NOT FOUND. WILL CONTROL LOCAL BUS
 REPCAU1 AT BUS  971143 MACHINE '1 ': REMOTE BUS NOT SPECIFIED OR NOT FOUND. WILL CONTROL LOCAL BUS
 REPCAU1 AT BUS  971144 MACHINE '1 ': REMOTE BUS NOT SPECIFIED OR NOT FOUND. WILL CONTROL LOCAL BUS
 REPCAU1 AT BUS  971145 MACHINE '1 ': REMOTE BUS NOT SPECIFIED OR NOT FOUND. WILL CONTROL LOCAL BUS
 REPCAU1 AT BUS  971151 MACHINE '1 ': REMOTE BUS NOT SPECIFIED OR NOT FOUND. WILL CONTROL LOCAL BUS
 REPCAU1 AT BUS  971152 MACHINE '1 ': REMOTE BUS NOT SPECIFIED OR NOT FOUND. WILL CONTROL LOCAL BUS
 REPCAU1 AT BUS  971153 MACHINE '1 ': REMOTE BUS NOT SPECIFIED OR NOT FOUND. WILL CONTROL LOCAL BUS
 REPCAU1 AT BUS  971154 MACHINE '1 ': REMOTE BUS NOT SPECIFIED OR NOT FOUND. WILL CONTROL LOCAL BUS
 REPCAU1 AT BUS  971155 MACHINE '1 ': REMOTE BUS NOT SPECIFIED OR NOT FOUND. WILL CONTROL LOCAL BUS
 REPCAU1 AT BUS  971156 MACHINE '1 ': REMOTE BUS NOT SPECIFIED OR NOT FOUND. WILL CONTROL LOCAL BUS
 REPCAU1 AT BUS  971161 MACHINE '1 ': REMOTE BUS NOT SPECIFIED OR NOT FOUND. WILL CONTROL LOCAL BUS
 REPCAU1 AT BUS  971162 MACHINE '1 ': REMOTE BUS NOT SPECIFIED OR NOT FOUND. WILL CONTROL LOCAL BUS
 REPCAU1 AT BUS  971163 MACHINE '1 ': REMOTE BUS NOT SPECIFIED OR NOT FOUND. WILL CONTROL LOCAL BUS
 REPCAU1 AT BUS  971164 MACHINE '1 ': REMOTE BUS NOT SPECIFIED OR NOT FOUND. WILL CONTROL LOCAL BUS
 REPCAU1 AT BUS  971165 MACHINE '1 ': REMOTE BUS NOT SPECIFIED OR NOT FOUND. WILL CONTROL LOCAL BUS
 REPCAU1 AT BUS  971166 MACHINE '1 ': REMOTE BUS NOT SPECIFIED OR NOT FOUND. WILL CONTROL LOCAL BUS
 REPCAU1 AT BUS  971168 MACHINE '1 ': REMOTE BUS NOT SPECIFIED OR NOT FOUND. WILL CONTROL LOCAL BUS
 REPCAU1 AT BUS  971169 MACHINE '1 ': REMOTE BUS NOT SPECIFIED OR NOT FOUND. WILL CONTROL LOCAL BUS
 REPCAU1 AT BUS  971171 MACHINE '1 ': REMOTE BUS NOT SPECIFIED OR NOT FOUND. WILL CONTROL LOCAL BUS
 REPCAU1 AT BUS  971172 MACHINE '1 ': REMOTE BUS NOT SPECIFIED OR NOT FOUND. WILL CONTROL LOCAL BUS
 REPCAU1 AT BUS  971177 MACHINE '1 ': REMOTE BUS NOT SPECIFIED OR NOT FOUND. WILL CONTROL LOCAL BUS
 REPCAU1 AT BUS  971183 MACHINE '1 ': REMOTE BUS NOT SPECIFIED OR NOT FOUND. WILL CONTROL LOCAL BUS
 REPCAU1 AT BUS  972111 MACHINE '1 ': REMOTE BUS NOT SPECIFIED OR NOT FOUND. WILL CONTROL LOCAL BUS
 REPCAU1 AT BUS  972112 MACHINE '1 ': REMOTE BUS NOT SPECIFIED OR NOT FOUND. WILL CONTROL LOCAL BUS
 REPCAU1 AT BUS  972113 MACHINE '1 ': REMOTE BUS NOT SPECIFIED OR NOT FOUND. WILL CONTROL LOCAL BUS
 REPCAU1 AT BUS  972121 MACHINE '1 ': REMOTE BUS NOT SPECIFIED OR NOT FOUND. WILL CONTROL LOCAL BUS
 REPCAU1 AT BUS  972221 MACHINE '1 ': REMOTE BUS NOT SPECIFIED OR NOT FOUND. WILL CONTROL LOCAL BUS
 REPCAU1 AT BUS  972223 MACHINE '1 ': REMOTE BUS NOT SPECIFIED OR NOT FOUND. WILL CONTROL LOCAL BUS
 REPCAU1 AT BUS  972231 MACHINE '1 ': REMOTE BUS NOT SPECIFIED OR NOT FOUND. WILL CONTROL LOCAL BUS
 REPCAU1 AT BUS  972232 MACHINE '1 ': REMOTE BUS NOT SPECIFIED OR NOT FOUND. WILL CONTROL LOCAL BUS
 REPCAU1 AT BUS  972233 MACHINE '1 ': REMOTE BUS NOT SPECIFIED OR NOT FOUND. WILL CONTROL LOCAL BUS
 REPCAU1 AT BUS  972251 MACHINE '1 ': REMOTE BUS NOT SPECIFIED OR NOT FOUND. WILL CONTROL LOCAL BUS
 REPCAU1 AT BUS  972252 MACHINE '1 ': REMOTE BUS NOT SPECIFIED OR NOT FOUND. WILL CONTROL LOCAL BUS
 REPCAU1 AT BUS  972271 MACHINE '1 ': REMOTE BUS NOT SPECIFIED OR NOT FOUND. WILL CONTROL LOCAL BUS
 REPCAU1 AT BUS  972272 MACHINE '1 ': REMOTE BUS NOT SPECIFIED OR NOT FOUND. WILL CONTROL LOCAL BUS
 REPCAU1 AT BUS  972291 MACHINE '1 ': REMOTE BUS NOT SPECIFIED OR NOT FOUND. WILL CONTROL LOCAL BUS
 REPCAU1 AT BUS  972292 MACHINE '1 ': REMOTE BUS NOT SPECIFIED OR NOT FOUND. WILL CONTROL LOCAL BUS
 REPCAU1 AT BUS  972293 MACHINE '1 ': REMOTE BUS NOT SPECIFIED OR NOT FOUND. WILL CONTROL LOCAL BUS
 REPCAU1 AT BUS  972321 MACHINE '1 ': REMOTE BUS NOT SPECIFIED OR NOT FOUND. WILL CONTROL LOCAL BUS
 REPCAU1 AT BUS  972322 MACHINE '1 ': REMOTE BUS NOT SPECIFIED OR NOT FOUND. WILL CONTROL LOCAL BUS
 REPCAU1 AT BUS  972331 MACHINE '1 ': REMOTE BUS NOT SPECIFIED OR NOT FOUND. WILL CONTROL LOCAL BUS
 REPCAU1 AT BUS  972351 MACHINE '1 ': REMOTE BUS NOT SPECIFIED OR NOT FOUND. WILL CONTROL LOCAL BUS
 REPCAU1 AT BUS  972352 MACHINE '1 ': REMOTE BUS NOT SPECIFIED OR NOT FOUND. WILL CONTROL LOCAL BUS
 REPCAU1 AT BUS  972353 MACHINE '1 ': REMOTE BUS NOT SPECIFIED OR NOT FOUND. WILL CONTROL LOCAL BUS
 REPCAU1 AT BUS  972361 MACHINE '1 ': REMOTE BUS NOT SPECIFIED OR NOT FOUND. WILL CONTROL LOCAL BUS
 REPCAU1 AT BUS  972511 MACHINE '1 ': REMOTE BUS NOT SPECIFIED OR NOT FOUND. WILL CONTROL LOCAL BUS
 REPCAU1 AT BUS  972651 MACHINE '1 ': REMOTE BUS NOT SPECIFIED OR NOT FOUND. WILL CONTROL LOCAL BUS
 REPCAU1 AT BUS  972831 MACHINE '1 ': REMOTE BUS NOT SPECIFIED OR NOT FOUND. WILL CONTROL LOCAL BUS
 REPCAU1 AT BUS  972841 MACHINE '1 ': REMOTE BUS NOT SPECIFIED OR NOT FOUND. WILL CONTROL LOCAL BUS
 REPCAU1 AT BUS  973099 MACHINE '1 ': REMOTE BUS NOT SPECIFIED OR NOT FOUND. WILL CONTROL LOCAL BUS
 REPCAU1 AT BUS  973155 MACHINE '1 ': REMOTE BUS NOT SPECIFIED OR NOT FOUND. WILL CONTROL LOCAL BUS
 REPCAU1 AT BUS  974051 MACHINE '1 ': REMOTE BUS NOT SPECIFIED OR NOT FOUND. WILL CONTROL LOCAL BUS
 REPCAU1 AT BUS  974052 MACHINE '1 ': REMOTE BUS NOT SPECIFIED OR NOT FOUND. WILL CONTROL LOCAL BUS
 REPCAU1 AT BUS  974053 MACHINE '1 ': REMOTE BUS NOT SPECIFIED OR NOT FOUND. WILL CONTROL LOCAL BUS
 REPCAU1 AT BUS  974054 MACHINE '1 ': REMOTE BUS NOT SPECIFIED OR NOT FOUND. WILL CONTROL LOCAL BUS
 REPCAU1 AT BUS  974055 MACHINE '1 ': REMOTE BUS NOT SPECIFIED OR NOT FOUND. WILL CONTROL LOCAL BUS
 REPCAU1 AT BUS  974056 MACHINE '1 ': REMOTE BUS NOT SPECIFIED OR NOT FOUND. WILL CONTROL LOCAL BUS
 REPCAU1 AT BUS  974060 MACHINE '1 ': REMOTE BUS NOT SPECIFIED OR NOT FOUND. WILL CONTROL LOCAL BUS
 REPCAU1 AT BUS  974061 MACHINE '1 ': REMOTE BUS NOT SPECIFIED OR NOT FOUND. WILL CONTROL LOCAL BUS
 REPCAU1 AT BUS  974065 MACHINE '1 ': REMOTE BUS NOT SPECIFIED OR NOT FOUND. WILL CONTROL LOCAL BUS
 REPCAU1 AT BUS  974066 MACHINE '1 ': REMOTE BUS NOT SPECIFIED OR NOT FOUND. WILL CONTROL LOCAL BUS
 REPCAU1 AT BUS  974067 MACHINE '1 ': REMOTE BUS NOT SPECIFIED OR NOT FOUND. WILL CONTROL LOCAL BUS
 REPCAU1 AT BUS  985058 MACHINE '1 ': REMOTE BUS NOT SPECIFIED OR NOT FOUND. WILL CONTROL LOCAL BUS
 REPCAU1 AT BUS  988011 MACHINE '1 ': REMOTE BUS NOT SPECIFIED OR NOT FOUND. WILL CONTROL LOCAL BUS
 REPCAU1 AT BUS  988031 MACHINE '1 ': REMOTE BUS NOT SPECIFIED OR NOT FOUND. WILL CONTROL LOCAL BUS
 REPCAU1 AT BUS  988051 MACHINE '1 ': REMOTE BUS NOT SPECIFIED OR NOT FOUND. WILL CONTROL LOCAL BUS
 REPCAU1 AT BUS  990061 MACHINE '1 ': REMOTE BUS NOT SPECIFIED OR NOT FOUND. WILL CONTROL LOCAL BUS
 REECAU1 AT BUS  916038 MACHINE '1 ': REMOTE BUS NOT SPECIFIED OR NOT FOUND. WILL CONTROL LOCAL BUS
 REECAU1 AT BUS  991087 MACHINE '1 ': REMOTE BUS NOT SPECIFIED OR NOT FOUND. WILL CONTROL LOCAL BUS
 REECAU1 AT BUS  971081 MACHINE '1 ': REMOTE BUS NOT SPECIFIED OR NOT FOUND. WILL CONTROL LOCAL BUS
 REECAU1 AT BUS  971082 MACHINE '1 ': REMOTE BUS NOT SPECIFIED OR NOT FOUND. WILL CONTROL LOCAL BUS
 REECAU1 AT BUS  971085 MACHINE '1 ': REMOTE BUS NOT SPECIFIED OR NOT FOUND. WILL CONTROL LOCAL BUS
 REECAU1 AT BUS  971102 MACHINE '1 ': REMOTE BUS NOT SPECIFIED OR NOT FOUND. WILL CONTROL LOCAL BUS
 REECAU1 AT BUS  971111 MACHINE '1 ': REMOTE BUS NOT SPECIFIED OR NOT FOUND. WILL CONTROL LOCAL BUS
 REECAU1 AT BUS  971112 MACHINE '1 ': REMOTE BUS NOT SPECIFIED OR NOT FOUND. WILL CONTROL LOCAL BUS
 REECAU1 AT BUS  971113 MACHINE '1 ': REMOTE BUS NOT SPECIFIED OR NOT FOUND. WILL CONTROL LOCAL BUS
 REECAU1 AT BUS  971121 MACHINE '1 ': REMOTE BUS NOT SPECIFIED OR NOT FOUND. WILL CONTROL LOCAL BUS
 REECAU1 AT BUS  971122 MACHINE '1 ': REMOTE BUS NOT SPECIFIED OR NOT FOUND. WILL CONTROL LOCAL BUS
 REECAU1 AT BUS  971123 MACHINE '1 ': REMOTE BUS NOT SPECIFIED OR NOT FOUND. WILL CONTROL LOCAL BUS
 REECAU1 AT BUS  971124 MACHINE '1 ': REMOTE BUS NOT SPECIFIED OR NOT FOUND. WILL CONTROL LOCAL BUS
 REECAU1 AT BUS  971125 MACHINE '1 ': REMOTE BUS NOT SPECIFIED OR NOT FOUND. WILL CONTROL LOCAL BUS
 REECAU1 AT BUS  971126 MACHINE '1 ': REMOTE BUS NOT SPECIFIED OR NOT FOUND. WILL CONTROL LOCAL BUS
 REECAU1 AT BUS  971131 MACHINE '1 ': REMOTE BUS NOT SPECIFIED OR NOT FOUND. WILL CONTROL LOCAL BUS
 REECAU1 AT BUS  971132 MACHINE '1 ': REMOTE BUS NOT SPECIFIED OR NOT FOUND. WILL CONTROL LOCAL BUS
 REECAU1 AT BUS  971133 MACHINE '1 ': REMOTE BUS NOT SPECIFIED OR NOT FOUND. WILL CONTROL LOCAL BUS
 REECAU1 AT BUS  971141 MACHINE '1 ': REMOTE BUS NOT SPECIFIED OR NOT FOUND. WILL CONTROL LOCAL BUS
 REECAU1 AT BUS  971142 MACHINE '1 ': REMOTE BUS NOT SPECIFIED OR NOT FOUND. WILL CONTROL LOCAL BUS
 REECAU1 AT BUS  971143 MACHINE '1 ': REMOTE BUS NOT SPECIFIED OR NOT FOUND. WILL CONTROL LOCAL BUS
 REECAU1 AT BUS  971144 MACHINE '1 ': REMOTE BUS NOT SPECIFIED OR NOT FOUND. WILL CONTROL LOCAL BUS
 REECAU1 AT BUS  971145 MACHINE '1 ': REMOTE BUS NOT SPECIFIED OR NOT FOUND. WILL CONTROL LOCAL BUS
 REECAU1 AT BUS  971151 MACHINE '1 ': REMOTE BUS NOT SPECIFIED OR NOT FOUND. WILL CONTROL LOCAL BUS
 REECAU1 AT BUS  971152 MACHINE '1 ': REMOTE BUS NOT SPECIFIED OR NOT FOUND. WILL CONTROL LOCAL BUS
 REECAU1 AT BUS  971153 MACHINE '1 ': REMOTE BUS NOT SPECIFIED OR NOT FOUND. WILL CONTROL LOCAL BUS
 REECAU1 AT BUS  971154 MACHINE '1 ': REMOTE BUS NOT SPECIFIED OR NOT FOUND. WILL CONTROL LOCAL BUS
 REECAU1 AT BUS  971155 MACHINE '1 ': REMOTE BUS NOT SPECIFIED OR NOT FOUND. WILL CONTROL LOCAL BUS
 REECAU1 AT BUS  971156 MACHINE '1 ': REMOTE BUS NOT SPECIFIED OR NOT FOUND. WILL CONTROL LOCAL BUS
 REECAU1 AT BUS  971161 MACHINE '1 ': REMOTE BUS NOT SPECIFIED OR NOT FOUND. WILL CONTROL LOCAL BUS
 REECAU1 AT BUS  971162 MACHINE '1 ': REMOTE BUS NOT SPECIFIED OR NOT FOUND. WILL CONTROL LOCAL BUS
 REECAU1 AT BUS  971163 MACHINE '1 ': REMOTE BUS NOT SPECIFIED OR NOT FOUND. WILL CONTROL LOCAL BUS
 REECAU1 AT BUS  971164 MACHINE '1 ': REMOTE BUS NOT SPECIFIED OR NOT FOUND. WILL CONTROL LOCAL BUS
 REECAU1 AT BUS  971165 MACHINE '1 ': REMOTE BUS NOT SPECIFIED OR NOT FOUND. WILL CONTROL LOCAL BUS
 REECAU1 AT BUS  971166 MACHINE '1 ': REMOTE BUS NOT SPECIFIED OR NOT FOUND. WILL CONTROL LOCAL BUS
 REECAU1 AT BUS  971168 MACHINE '1 ': REMOTE BUS NOT SPECIFIED OR NOT FOUND. WILL CONTROL LOCAL BUS
 REECAU1 AT BUS  971169 MACHINE '1 ': REMOTE BUS NOT SPECIFIED OR NOT FOUND. WILL CONTROL LOCAL BUS
 REECAU1 AT BUS  971171 MACHINE '1 ': REMOTE BUS NOT SPECIFIED OR NOT FOUND. WILL CONTROL LOCAL BUS
 REECAU1 AT BUS  971172 MACHINE '1 ': REMOTE BUS NOT SPECIFIED OR NOT FOUND. WILL CONTROL LOCAL BUS
 REECAU1 AT BUS  971177 MACHINE '1 ': REMOTE BUS NOT SPECIFIED OR NOT FOUND. WILL CONTROL LOCAL BUS
 REECAU1 AT BUS  971183 MACHINE '1 ': REMOTE BUS NOT SPECIFIED OR NOT FOUND. WILL CONTROL LOCAL BUS
 REECAU1 AT BUS  972111 MACHINE '1 ': REMOTE BUS NOT SPECIFIED OR NOT FOUND. WILL CONTROL LOCAL BUS
 REECAU1 AT BUS  972112 MACHINE '1 ': REMOTE BUS NOT SPECIFIED OR NOT FOUND. WILL CONTROL LOCAL BUS
 REECAU1 AT BUS  972113 MACHINE '1 ': REMOTE BUS NOT SPECIFIED OR NOT FOUND. WILL CONTROL LOCAL BUS
 REECAU1 AT BUS  972121 MACHINE '1 ': REMOTE BUS NOT SPECIFIED OR NOT FOUND. WILL CONTROL LOCAL BUS
 REECAU1 AT BUS  972221 MACHINE '1 ': REMOTE BUS NOT SPECIFIED OR NOT FOUND. WILL CONTROL LOCAL BUS
 REECAU1 AT BUS  972223 MACHINE '1 ': REMOTE BUS NOT SPECIFIED OR NOT FOUND. WILL CONTROL LOCAL BUS
 REECAU1 AT BUS  972231 MACHINE '1 ': REMOTE BUS NOT SPECIFIED OR NOT FOUND. WILL CONTROL LOCAL BUS
 REECAU1 AT BUS  972232 MACHINE '1 ': REMOTE BUS NOT SPECIFIED OR NOT FOUND. WILL CONTROL LOCAL BUS
 REECAU1 AT BUS  972233 MACHINE '1 ': REMOTE BUS NOT SPECIFIED OR NOT FOUND. WILL CONTROL LOCAL BUS
 REECAU1 AT BUS  972251 MACHINE '1 ': REMOTE BUS NOT SPECIFIED OR NOT FOUND. WILL CONTROL LOCAL BUS
 REECAU1 AT BUS  972252 MACHINE '1 ': REMOTE BUS NOT SPECIFIED OR NOT FOUND. WILL CONTROL LOCAL BUS
 REECAU1 AT BUS  972271 MACHINE '1 ': REMOTE BUS NOT SPECIFIED OR NOT FOUND. WILL CONTROL LOCAL BUS
 REECAU1 AT BUS  972272 MACHINE '1 ': REMOTE BUS NOT SPECIFIED OR NOT FOUND. WILL CONTROL LOCAL BUS
 REECAU1 AT BUS  972291 MACHINE '1 ': REMOTE BUS NOT SPECIFIED OR NOT FOUND. WILL CONTROL LOCAL BUS
 REECAU1 AT BUS  972292 MACHINE '1 ': REMOTE BUS NOT SPECIFIED OR NOT FOUND. WILL CONTROL LOCAL BUS
 REECAU1 AT BUS  972293 MACHINE '1 ': REMOTE BUS NOT SPECIFIED OR NOT FOUND. WILL CONTROL LOCAL BUS
 REECAU1 AT BUS  972321 MACHINE '1 ': REMOTE BUS NOT SPECIFIED OR NOT FOUND. WILL CONTROL LOCAL BUS
 REECAU1 AT BUS  972322 MACHINE '1 ': REMOTE BUS NOT SPECIFIED OR NOT FOUND. WILL CONTROL LOCAL BUS
 REECAU1 AT BUS  972331 MACHINE '1 ': REMOTE BUS NOT SPECIFIED OR NOT FOUND. WILL CONTROL LOCAL BUS
 REECAU1 AT BUS  972351 MACHINE '1 ': REMOTE BUS NOT SPECIFIED OR NOT FOUND. WILL CONTROL LOCAL BUS
 REECAU1 AT BUS  972352 MACHINE '1 ': REMOTE BUS NOT SPECIFIED OR NOT FOUND. WILL CONTROL LOCAL BUS
 REECAU1 AT BUS  972353 MACHINE '1 ': REMOTE BUS NOT SPECIFIED OR NOT FOUND. WILL CONTROL LOCAL BUS
 REECAU1 AT BUS  972361 MACHINE '1 ': REMOTE BUS NOT SPECIFIED OR NOT FOUND. WILL CONTROL LOCAL BUS
 REECAU1 AT BUS  972511 MACHINE '1 ': REMOTE BUS NOT SPECIFIED OR NOT FOUND. WILL CONTROL LOCAL BUS
 REECAU1 AT BUS  972651 MACHINE '1 ': REMOTE BUS NOT SPECIFIED OR NOT FOUND. WILL CONTROL LOCAL BUS
 REECAU1 AT BUS  972831 MACHINE '1 ': REMOTE BUS NOT SPECIFIED OR NOT FOUND. WILL CONTROL LOCAL BUS
 REECAU1 AT BUS  972841 MACHINE '1 ': REMOTE BUS NOT SPECIFIED OR NOT FOUND. WILL CONTROL LOCAL BUS
 REECAU1 AT BUS  973099 MACHINE '1 ': REMOTE BUS NOT SPECIFIED OR NOT FOUND. WILL CONTROL LOCAL BUS
 REECAU1 AT BUS  973155 MACHINE '1 ': REMOTE BUS NOT SPECIFIED OR NOT FOUND. WILL CONTROL LOCAL BUS
 REECAU1 AT BUS  974051 MACHINE '1 ': REMOTE BUS NOT SPECIFIED OR NOT FOUND. WILL CONTROL LOCAL BUS
 REECAU1 AT BUS  974052 MACHINE '1 ': REMOTE BUS NOT SPECIFIED OR NOT FOUND. WILL CONTROL LOCAL BUS
 REECAU1 AT BUS  974053 MACHINE '1 ': REMOTE BUS NOT SPECIFIED OR NOT FOUND. WILL CONTROL LOCAL BUS
 REECAU1 AT BUS  974054 MACHINE '1 ': REMOTE BUS NOT SPECIFIED OR NOT FOUND. WILL CONTROL LOCAL BUS
 REECAU1 AT BUS  974055 MACHINE '1 ': REMOTE BUS NOT SPECIFIED OR NOT FOUND. WILL CONTROL LOCAL BUS
 REECAU1 AT BUS  974056 MACHINE '1 ': REMOTE BUS NOT SPECIFIED OR NOT FOUND. WILL CONTROL LOCAL BUS
 REECAU1 AT BUS  974060 MACHINE '1 ': REMOTE BUS NOT SPECIFIED OR NOT FOUND. WILL CONTROL LOCAL BUS
 REECAU1 AT BUS  974061 MACHINE '1 ': REMOTE BUS NOT SPECIFIED OR NOT FOUND. WILL CONTROL LOCAL BUS
...